grid_simulations/tests/Result_no_control/output_current_11_30.csv
# Result_no_control/output_current_11_30.csv run at 2000-01-01 11:30:00 EST on 907 links
link_name,currA_mag,currA_angle,currB_mag,currB_angle,currC_mag,currC_angle
Source_Impedance,20.489861,-0.357612,16.813572,3.773752,18.009532,1.888690
TR1,20.489861,-0.357612,16.813572,3.773752,18.009532,1.888690
LINE1,566.712444,-0.836901,507.952972,3.324397,382.565846,1.246910
LINE2,566.712444,-0.836901,507.952972,3.324397,382.565846,1.246910
LINE3,566.712444,-0.836901,507.952972,3.324397,382.565846,1.246910
LINE4,566.712444,-0.836901,507.952972,3.324397,382.565846,1.246910
LINE5,566.712444,-0.836901,507.952972,3.324397,382.565846,1.246910
LINE6,566.712444,-0.836901,507.952972,3.324397,382.565846,1.246910
LINE7,566.712444,-0.836901,507.952972,3.324397,382.565846,1.246910
LINE8,566.712444,-0.836901,507.952972,3.324397,382.565846,1.246910
LINE9,566.712444,-0.836901,507.952972,3.324397,382.565846,1.246910
LINE10,566.712444,-0.836901,507.952972,3.324397,382.565846,1.246910
LINE11,566.712444,-0.836901,507.952972,3.324397,382.565846,1.246910
LINE12,566.712444,-0.836901,507.952972,3.324397,382.565846,1.246910
LINE13,566.712444,-0.836901,507.952972,3.324397,382.565846,1.246910
LINE14,566.712444,-0.836901,507.952972,3.324397,382.565846,1.246910
LINE15,0.000000,3.152360,0.000000,0.323839,0.000000,1.514625
LINE16,566.712444,-0.836901,507.952972,3.324397,382.565846,1.246910
LINE17,0.000000,3.116661,0.000000,0.355574,0.000000,-0.024932
LINE18,566.712444,-0.836901,507.952972,3.324397,382.565846,1.246910
LINE19,0.000000,3.045353,0.000000,0.220047,0.000000,4.703081
LINE20,566.712444,-0.836901,507.952972,3.324397,382.565846,1.246910
LINE21,0.000000,3.216329,0.000000,0.186161,0.000000,-1.517762
LINE22,566.712444,-0.836901,507.952972,3.324397,382.565846,1.246910
LINE23,0.000000,3.314056,0.000000,-0.024932,0.000000,-1.533309
LINE24,566.712444,-0.836901,507.952972,3.324397,382.565846,1.246910
LINE25,0.000000,3.580308,0.000000,-0.124601,0.000000,1.525034
LINE26,49.810714,-0.857361,0.000000,3.352343,0.000000,1.603589
LINE27,516.913159,-0.834930,507.952972,3.324397,382.565846,1.246910
LINE28,0.000000,3.475431,0.000000,-0.024932,0.000000,1.538052
LINE29,24.903331,-0.857381,0.000000,2.082716,0.000000,-1.445833
LINE30,24.907383,-0.857341,0.000000,3.347150,0.000000,1.604592
LINE31,516.913159,-0.834930,507.952972,3.324397,382.565846,1.246910
LINE32,0.000000,3.942038,0.000000,-0.074890,0.000000,1.561488
LINE33,24.903331,-0.857381,0.000000,-0.745473,0.000000,4.637467
LINE34,24.907383,-0.857341,0.000000,3.195914,0.000000,1.584827
LINE35,0.000000,3.411771,50.361162,3.326862,0.000000,1.843265
LINE36,516.913159,-0.834930,457.591980,3.324126,382.565846,1.246910
LINE37,0.000000,3.825287,0.000000,0.016711,0.000000,1.557583
LINE38,24.907383,-0.857341,0.000000,3.402091,0.000000,1.721166
LINE39,0.000000,3.380457,25.181018,3.326866,0.000000,1.800458
LINE40,0.000000,0.830764,25.180143,3.326858,0.000000,1.618569
LINE41,516.913159,-0.834930,457.591980,3.324126,382.565846,1.246910
LINE42,0.000000,-0.098896,0.000000,3.036991,0.000000,-0.865787
LINE43,0.000000,3.475431,0.000000,-0.024932,0.000000,1.545864
LINE44,24.907383,-0.857341,0.000000,3.090150,0.000000,1.762313
LINE45,0.000000,3.019599,25.181018,3.326866,0.000000,4.652756
LINE46,0.000000,2.106454,25.180143,3.326858,0.000000,1.451515
LINE47,516.913159,-0.834930,457.591980,3.324126,382.565846,1.246910
LINE48,0.000000,0.552665,0.000000,2.971036,0.000000,-1.152910
LINE49,0.000000,3.438411,0.000000,0.172464,0.000000,1.467898
LINE50,24.907383,-0.857341,0.000000,-0.610837,0.000000,1.646803
LINE51,0.000000,2.904199,25.181018,3.326866,0.000000,-1.553458
LINE52,516.913159,-0.834930,457.591980,3.324126,382.565846,1.246910
LINE53,0.000000,-0.744648,0.000000,3.257046,0.000000,2.474581
LINE54,0.000000,-0.295643,0.000000,2.780688,0.000000,-1.355310
LINE55,0.000000,3.835491,0.000000,0.220047,0.000000,1.452388
LINE56,24.907383,-0.857341,0.000000,-0.788008,0.000000,2.624996
LINE57,0.000000,2.987316,25.181018,3.326866,0.000000,-1.522672
LINE58,516.913159,-0.834930,457.591980,3.324126,382.565846,1.246910
LINE59,0.000000,-0.693266,0.000000,3.178624,0.000000,4.088751
LINE60,0.000000,-0.676270,0.000000,2.983476,0.000000,-0.824541
LINE61,0.000000,3.580308,0.000000,0.140217,0.000000,1.538052
LINE62,24.907383,-0.857341,0.000000,0.363497,0.000000,-1.542249
LINE63,0.000000,2.865801,25.181018,3.326866,0.000000,1.385073
LINE64,465.285144,-0.833475,457.591980,3.324126,382.565846,1.246910
LINE65,51.632945,-0.848042,0.000000,0.700355,0.000000,-1.428752
LINE66,0.000000,2.502885,0.000000,2.782685,0.000000,4.306959
LINE67,0.000000,-0.477286,0.000000,3.075620,0.000000,-1.198408
LINE68,0.000000,3.657080,0.000000,0.099423,0.000000,1.545864
LINE69,24.907383,-0.857341,0.000000,2.875637,0.000000,1.541212
LINE70,0.000000,2.124385,25.181018,3.326866,0.000000,4.539252
LINE71,465.285144,-0.833475,457.591980,3.324126,382.565846,1.246910
LINE72,25.816473,-0.848042,0.000000,2.849955,0.000000,1.443527
LINE73,25.816473,-0.848042,0.000000,2.848159,0.000000,1.563121
LINE74,0.000000,2.839073,0.000000,3.437898,0.000000,4.009374
LINE75,0.000000,-0.649521,0.000000,3.017839,0.000000,-1.302916
LINE76,0.000000,3.595013,0.000000,0.049928,0.000000,1.569298
LINE77,0.000000,3.656230,25.181018,3.326866,0.000000,-1.450369
LINE78,465.285144,-0.833475,457.591980,3.324126,382.565846,1.246910
LINE79,0.000000,2.379221,0.000000,3.224317,0.000000,4.048884
LINE80,0.000000,-0.675186,0.000000,3.053132,0.000000,-1.301982
LINE81,0.000000,3.602903,0.000000,0.078860,0.000000,1.574266
LINE82,0.000000,0.404665,25.181018,3.326866,0.000000,1.779323
LINE83,465.285144,-0.833475,457.591980,3.324126,382.565846,1.246910
LINE84,0.000000,3.734237,0.000000,4.230408,0.000000,4.031194
LINE85,0.000000,-0.645510,0.000000,3.043773,0.000000,-1.300876
LINE86,0.000000,3.657080,0.000000,0.058209,0.000000,1.577104
LINE87,465.285144,-0.833475,457.591980,3.324126,382.565846,1.246910
LINE88,0.000000,3.368171,0.000000,-0.890869,0.000000,1.283298
LINE89,0.000000,-0.704802,0.000000,3.057114,0.000000,-1.333736
LINE90,0.000000,3.629050,0.000000,-0.024932,0.000000,1.608283
LINE91,465.285144,-0.833475,457.591980,3.324126,382.565846,1.246910
LINE92,0.000000,-1.080581,0.000000,2.834746,0.000000,-1.306564
LINE93,0.000000,3.580308,0.000000,-0.024932,0.000000,1.577104
LINE94,465.285144,-0.833475,457.591980,3.324126,382.565846,1.246910
LINE95,0.000000,3.491080,0.000000,3.077653,0.000000,-1.281661
LINE96,0.000000,3.361639,0.000000,0.438716,0.000000,3.116661
LINE97,465.285144,-0.833475,457.591980,3.324126,382.565846,1.246910
LINE98,0.000000,3.877161,0.000000,2.813636,0.000000,4.357799
LINE99,0.000000,1.545864,0.000000,3.116661,0.000000,-1.548888
LINE100,465.285144,-0.833475,457.591980,3.324126,382.565846,1.246910
LINE101,0.000000,-0.152910,0.000000,3.316984,0.000000,0.374065
LINE102,0.000000,0.000000,0.000000,0.000000,0.000000,-0.024932
LINE103,26.134139,-0.844992,78.194384,3.327778,50.389682,1.244538
LINE104,439.152842,-0.832789,379.398225,3.323374,332.176327,1.247270
LINE105,0.000000,-0.177986,0.000000,3.231873,0.000000,-0.510612
LINE106,26.134139,-0.844992,78.194384,3.327778,50.389682,1.244538
LINE107,439.152842,-0.832789,379.398225,3.323374,332.176327,1.247270
LINE108,0.000000,-0.661056,0.000000,3.178935,0.000000,4.665478
LINE109,26.134139,-0.844992,78.194384,3.327778,50.389682,1.244538
LINE110,439.152842,-0.832789,379.398225,3.323374,332.176327,1.247270
LINE111,0.000000,-0.624688,0.000000,3.141592,0.000000,4.695597
LINE112,26.134139,-0.844992,78.194384,3.327778,50.389682,1.244538
LINE113,439.152842,-0.832789,379.398225,3.323374,332.176327,1.247270
LINE114,0.000000,-0.611346,0.000000,3.137222,0.000000,4.695812
LINE115,26.134139,-0.844992,78.194384,3.327778,50.389682,1.244538
LINE116,26.337157,-0.843379,52.431358,3.328040,50.603513,1.245655
LINE117,412.817256,-0.832114,326.967530,3.322625,281.572892,1.247561
LINE118,0.000000,-0.415667,0.000000,3.119381,0.000000,4.658114
LINE119,26.134139,-0.844992,78.194384,3.327778,50.389682,1.244538
LINE120,0.000000,3.116661,0.000000,0.760466,0.000000,-1.565139
LINE121,26.337157,-0.843379,52.431358,3.328040,50.603513,1.245655
LINE122,412.817256,-0.832114,326.967530,3.322625,281.572892,1.247561
LINE123,0.000000,-0.258137,0.000000,3.145480,0.000000,4.704612
LINE124,26.134139,-0.844992,78.194384,3.327778,50.389682,1.244538
LINE125,0.000000,3.162084,0.000000,0.563071,0.000000,4.710890
LINE126,26.337157,-0.843379,52.431358,3.328040,50.603513,1.245655
LINE127,412.817256,-0.832114,326.967530,3.322625,281.572892,1.247561
LINE128,0.000000,-0.490627,0.000000,3.066936,0.000000,4.557813
LINE129,26.134139,-0.844992,78.194384,3.327778,50.389682,1.244538
LINE130,0.000000,3.116661,0.000000,0.563071,0.000000,-1.567611
LINE131,26.337157,-0.843379,0.000000,2.861953,0.000000,1.541014
LINE132,0.000000,3.091670,52.431358,3.328040,50.603513,1.245655
LINE133,412.817256,-0.832114,326.967530,3.322625,281.572892,1.247561
LINE134,0.000000,-0.385085,0.000000,3.053618,0.000000,4.649308
LINE135,26.134139,-0.844992,78.194384,3.327778,50.389682,1.244538
LINE136,0.000000,3.179080,0.000000,0.957862,0.000000,4.706986
LINE137,26.337157,-0.843379,0.000000,2.818971,0.000000,1.543779
LINE138,0.000000,3.098575,52.431358,3.328040,50.603513,1.245655
LINE139,412.817256,-0.832114,326.967530,3.322625,281.572892,1.247561
LINE140,0.000000,-0.447143,0.000000,3.082649,0.000000,4.637018
LINE141,26.134139,-0.844992,78.194384,3.327778,50.389682,1.244538
LINE142,0.000000,3.179080,0.000000,0.585794,0.000000,4.708761
LINE143,26.337157,-0.843379,0.000000,2.870119,0.000000,1.533391
LINE144,0.000000,3.081048,52.431358,3.328040,50.603513,1.245655
LINE145,412.817256,-0.832114,326.967530,3.322625,281.572892,1.247561
LINE146,0.000000,-0.556660,0.000000,3.049407,0.000000,-1.310019
LINE147,26.134139,-0.844992,78.194384,3.327778,50.389682,1.244538
LINE148,0.000000,3.116661,0.000000,0.533667,0.000000,4.706552
LINE149,26.337157,-0.843379,0.000000,2.799879,0.000000,1.538232
LINE150,0.000000,3.099065,0.000000,3.263792,50.603513,1.245655
LINE151,0.000000,-0.186350,52.431358,3.328040,0.000000,-1.568082
LINE152,412.817256,-0.832114,326.967530,3.322625,281.572892,1.247561
LINE153,0.000000,4.027480,0.000000,2.880140,0.000000,1.199553
LINE154,26.134139,-0.844992,78.194384,3.327778,50.389682,1.244538
LINE155,0.000000,3.116661,0.000000,0.533667,0.000000,4.696571
LINE156,26.337157,-0.843379,0.000000,2.818855,0.000000,1.538202
LINE157,0.000000,3.095686,0.000000,3.269928,50.603513,1.245655
LINE158,0.000000,0.135084,52.431358,3.328040,0.000000,-1.566193
LINE159,412.817256,-0.832114,326.967530,3.322625,281.572892,1.247561
LINE160,0.000000,0.040720,0.000000,3.240251,0.000000,3.634831
LINE161,0.000000,2.309975,26.013493,3.327611,0.000000,1.658032
LINE162,26.134139,-0.844992,52.180892,3.327862,50.389682,1.244538
LINE163,0.000000,3.314056,0.000000,0.438716,0.000000,4.692145
LINE164,26.337157,-0.843379,0.000000,2.888656,0.000000,1.536406
LINE165,0.000000,3.080340,0.000000,3.261574,50.603513,1.245655
LINE166,0.000000,-0.143675,52.431358,3.328040,0.000000,-1.569222
LINE167,412.817256,-0.832114,326.967530,3.322625,281.572892,1.247561
LINE168,0.000000,1.567536,0.000000,3.178668,0.000000,1.278967
LINE169,0.000000,0.210195,26.013493,3.327611,0.000000,1.771256
LINE170,26.134139,-0.844992,52.180892,3.327862,50.389682,1.244538
LINE171,0.000000,3.580308,0.000000,0.099423,0.000000,-1.567611
LINE172,26.337157,-0.843379,0.000000,2.818125,0.000000,1.535727
LINE173,0.000000,3.231981,0.000000,3.262384,0.000000,2.358351
LINE174,0.000000,0.743467,0.000000,-0.943330,50.603513,1.245655
LINE175,0.000000,2.954878,52.431358,3.328040,0.000000,4.698291
LINE176,412.817256,-0.832114,326.967530,3.322625,281.572892,1.247561
LINE177,0.000000,-0.350096,26.013493,3.327611,0.000000,4.528725
LINE178,26.134139,-0.844992,52.180892,3.327862,0.000000,-0.037263
LINE179,0.000000,-1.277851,0.000000,-0.852633,50.389682,1.244538
LINE180,0.000000,3.902059,0.000000,0.438716,0.000000,4.703081
LINE181,26.337157,-0.843379,0.000000,2.738106,0.000000,1.540171
LINE182,0.000000,3.666365,0.000000,3.256856,0.000000,2.393151
LINE183,0.000000,0.703070,0.000000,-0.884293,50.603513,1.245655
LINE184,0.000000,3.250456,52.431358,3.328040,0.000000,4.682080
LINE185,412.817256,-0.832114,326.967530,3.322625,281.572892,1.247561
LINE186,26.134139,-0.844992,52.180892,3.327862,0.000000,-0.350523
LINE187,0.000000,-1.233222,0.000000,-0.861874,50.389682,1.244538
LINE188,0.000000,3.580308,0.000000,0.140217,0.000000,4.691363
LINE189,26.337157,-0.843379,0.000000,2.697230,0.000000,1.540835
LINE190,0.000000,1.955398,0.000000,4.538307,0.000000,4.657208
LINE191,0.000000,3.805461,0.000000,3.152018,0.000000,2.077632
LINE192,0.000000,0.593444,0.000000,4.479264,50.603513,1.245655
LINE193,0.000000,3.107577,52.431358,3.328040,0.000000,4.677082
LINE194,412.817256,-0.832114,326.967530,3.322625,281.572892,1.247561
LINE195,26.134139,-0.844992,52.180892,3.327862,0.000000,-0.249367
LINE196,0.000000,4.113285,0.000000,0.674509,25.192850,1.244518
LINE197,0.000000,-0.991704,0.000000,-0.859247,25.196832,1.244557
LINE198,0.000000,3.580308,0.000000,0.957862,0.000000,4.697873
LINE199,26.337157,-0.843379,0.000000,2.779802,0.000000,1.549021
LINE200,0.000000,0.184896,0.000000,2.738767,0.000000,3.629123
LINE201,0.000000,3.573078,0.000000,2.978027,0.000000,2.818904
LINE202,0.000000,0.778731,0.000000,0.143017,50.603513,1.245655
LINE203,0.000000,2.782767,52.431358,3.328040,0.000000,4.689782
LINE204,412.817256,-0.832114,326.967530,3.322625,281.572892,1.247561
LINE205,26.134139,-0.844992,0.000000,0.547152,0.000000,4.684584
LINE206,0.000000,4.023951,52.180892,3.327862,0.000000,-0.894729
LINE207,0.000000,-1.062760,0.000000,3.169136,25.192850,1.244518
LINE208,0.000000,-0.184947,0.000000,-1.017851,25.196832,1.244557
LINE209,0.000000,2.133867,0.000000,0.760466,0.000000,4.687457
LINE210,26.337157,-0.843379,0.000000,2.851705,0.000000,1.548208
LINE211,0.000000,2.771284,0.000000,2.920448,0.000000,3.084211
LINE212,0.000000,1.239051,0.000000,1.817057,50.603513,1.245655
LINE213,0.000000,3.082541,52.431358,3.328040,0.000000,4.688193
LINE214,412.817256,-0.832114,326.967530,3.322625,281.572892,1.247561
LINE215,26.134139,-0.844992,0.000000,4.250981,0.000000,4.619073
LINE216,0.000000,3.998561,52.180892,3.327862,0.000000,-1.316246
LINE217,0.000000,-1.049262,0.000000,3.470287,25.196832,1.244557
LINE218,0.000000,0.000000,0.000000,0.000000,0.000000,0.000000
LINE219,26.337157,-0.843379,0.000000,2.780391,0.000000,1.549918
LINE220,0.000000,4.358310,0.000000,3.026721,0.000000,2.422087
LINE221,0.000000,1.283955,0.000000,1.520851,50.603513,1.245655
LINE222,0.000000,3.140378,52.431358,3.328040,0.000000,4.679647
LINE223,412.817256,-0.832114,326.967530,3.322625,281.572892,1.247561
LINE224,26.134139,-0.844992,0.000000,-0.692937,0.000000,4.590998
LINE225,0.000000,3.878312,52.180892,3.327862,0.000000,-1.209725
LINE226,0.000000,-0.514774,0.000000,3.406925,25.196832,1.244557
LINE227,26.337157,-0.843379,0.000000,3.063867,0.000000,1.563036
LINE228,0.000000,4.077984,0.000000,2.923260,0.000000,2.564852
LINE229,0.000000,1.282739,0.000000,0.897596,50.603513,1.245655
LINE230,0.000000,3.269615,52.431358,3.328040,0.000000,4.682909
LINE231,412.817256,-0.832114,326.967530,3.322625,281.572892,1.247561
LINE232,0.000000,-0.629365,52.180892,3.327862,0.000000,1.572314
LINE233,0.000000,3.139755,0.000000,3.628717,0.000000,0.367481
LINE234,0.000000,-0.504928,0.000000,3.697527,25.196832,1.244557
LINE235,26.337157,-0.843379,0.000000,3.326270,0.000000,1.587279
LINE236,0.000000,4.490730,0.000000,3.100677,0.000000,2.188977
LINE237,0.000000,1.300833,0.000000,2.549135,50.603513,1.245655
LINE238,0.000000,2.942670,52.431358,3.328040,0.000000,4.673346
LINE239,412.817256,-0.832114,326.967530,3.322625,281.572892,1.247561
LINE240,0.000000,-0.197528,52.180892,3.327862,0.000000,4.671112
LINE241,0.000000,-0.736884,0.000000,3.157313,25.196832,1.244557
LINE242,26.337157,-0.843379,0.000000,3.352779,0.000000,1.586995
LINE243,0.000000,4.149441,0.000000,3.167329,0.000000,1.836233
LINE244,0.000000,1.203486,0.000000,2.110922,50.603513,1.245655
LINE245,0.000000,3.002261,52.431358,3.328040,0.000000,4.679018
LINE246,412.817256,-0.832114,326.967530,3.322625,281.572892,1.247561
LINE247,0.000000,3.545696,26.090446,3.327862,0.000000,1.499237
LINE248,0.000000,3.605098,26.090446,3.327862,0.000000,1.519077
LINE249,0.000000,-1.521123,0.000000,-0.122227,25.196832,1.244557
LINE250,26.337157,-0.843379,0.000000,3.099093,0.000000,1.531823
LINE251,0.000000,3.512832,0.000000,2.367090,0.000000,2.406041
LINE252,0.000000,1.635647,0.000000,0.616035,50.603513,1.245655
LINE253,0.000000,3.012420,52.431358,3.328040,0.000000,4.672936
LINE254,26.789395,-0.840955,0.000000,3.151259,0.000000,2.299314
LINE255,386.028981,-0.831500,326.967530,3.322625,281.572892,1.247561
LINE256,0.000000,-0.674774,0.000000,-0.156773,25.196832,1.244557
LINE257,26.337157,-0.843379,0.000000,4.057535,0.000000,1.662791
LINE258,0.000000,2.600290,0.000000,2.878366,0.000000,2.994608
LINE259,0.000000,1.620323,0.000000,0.657479,50.603513,1.245655
LINE260,0.000000,2.757129,52.431358,3.328040,0.000000,4.696565
LINE261,26.789395,-0.840955,0.000000,3.251629,0.000000,2.220641
LINE262,386.028981,-0.831500,326.967530,3.322625,281.572892,1.247561
LINE263,0.000000,-0.341262,0.000000,1.200854,25.196832,1.244557
LINE264,26.337157,-0.843379,0.000000,2.121422,0.000000,1.666398
LINE265,0.000000,4.292718,0.000000,3.307587,0.000000,2.233099
LINE266,0.000000,1.637824,0.000000,0.734825,50.603513,1.245655
LINE267,0.000000,3.295081,26.219205,3.328073,0.000000,1.597371
LINE268,0.000000,2.933584,26.212153,3.328006,0.000000,-1.570347
LINE269,26.789395,-0.840955,0.000000,3.333095,0.000000,2.212099
LINE270,0.000000,-1.323988,0.000000,3.448883,25.435475,1.247743
LINE271,386.028981,-0.831500,326.967530,3.322625,256.137418,1.247543
LINE272,26.337157,-0.843379,0.000000,3.924108,0.000000,1.556360
LINE273,0.000000,3.392127,0.000000,3.049251,0.000000,2.735971
LINE274,0.000000,1.696210,0.000000,0.617204,50.603513,1.245655
LINE275,0.000000,-0.079690,26.219205,3.328073,0.000000,4.673421
LINE276,0.000000,2.484345,26.212153,3.328006,0.000000,4.689987
LINE277,26.789395,-0.840955,0.000000,3.401063,0.000000,2.388843
LINE278,0.000000,-0.920456,0.000000,3.554436,25.435475,1.247743
LINE279,386.028981,-0.831500,326.967530,3.322625,256.137418,1.247543
LINE280,26.337157,-0.843379,0.000000,2.998217,0.000000,1.579451
LINE281,0.000000,-1.006693,0.000000,-0.083070,0.000000,1.832719
LINE282,0.000000,1.697543,0.000000,1.101345,50.603513,1.245655
LINE283,0.000000,2.839676,26.212153,3.328006,0.000000,4.699520
LINE284,26.789395,-0.840955,0.000000,3.249822,0.000000,2.818241
LINE285,0.000000,-0.541608,0.000000,3.667133,25.435475,1.247743
LINE286,193.105123,-0.830279,108.692996,3.319082,50.784353,1.248623
LINE287,192.924146,-0.832722,218.275556,3.324390,205.353102,1.247276
LINE288,26.337157,-0.843379,0.000000,3.787630,0.000000,-1.538925
LINE289,0.000000,-0.845815,0.000000,-0.845815,0.000000,2.552059
LINE290,0.000000,2.741648,0.000000,-0.353993,25.307528,1.245711
LINE291,0.000000,0.549384,0.000000,2.771020,25.295985,1.245598
LINE292,0.000000,3.058028,26.212153,3.328006,0.000000,4.704673
LINE293,26.789395,-0.840955,0.000000,3.454043,0.000000,2.316951
LINE294,0.000000,-0.586236,0.000000,3.665406,25.435475,1.247743
LINE295,193.105123,-0.830279,108.692996,3.319082,50.784353,1.248623
LINE296,192.924146,-0.832722,218.275556,3.324390,205.353102,1.247276
LINE297,0.000000,2.511477,0.000000,-0.839544,25.307528,1.245711
LINE298,0.000000,-0.732381,0.000000,2.108668,25.295985,1.245598
LINE299,0.000000,3.030005,26.212153,3.328006,0.000000,-1.537703
LINE300,26.789395,-0.840955,0.000000,3.410552,0.000000,2.680350
LINE301,0.000000,-0.798114,0.000000,3.596755,25.435475,1.247743
LINE302,193.105123,-0.830279,108.692996,3.319082,50.784353,1.248623
LINE303,192.924146,-0.832722,218.275556,3.324390,205.353102,1.247276
LINE304,0.000000,-0.657982,0.000000,4.185646,25.307528,1.245711
LINE305,0.000000,3.006517,0.000000,1.912154,25.295985,1.245598
LINE306,0.000000,2.378427,26.212153,3.328006,0.000000,4.402599
LINE307,26.789395,-0.840955,0.000000,3.401661,0.000000,2.181265
LINE308,0.000000,-1.039926,0.000000,3.789609,25.435475,1.247743
LINE309,193.105123,-0.830279,108.692996,3.319082,50.784353,1.248623
LINE310,192.924146,-0.832722,218.275556,3.324390,205.353102,1.247276
LINE311,0.000000,4.110142,0.000000,0.398697,25.307528,1.245711
LINE312,0.000000,2.644727,0.000000,3.343587,25.295985,1.245598
LINE313,0.000000,-0.146843,26.212153,3.328006,0.000000,-1.517561
LINE314,26.789395,-0.840955,0.000000,3.268415,0.000000,2.029017
LINE315,0.000000,-0.981381,0.000000,3.787655,25.435475,1.247743
LINE316,54.153738,-0.838315,0.000000,0.249772,0.000000,1.523092
LINE317,138.953814,-0.827148,108.692996,3.319082,50.784353,1.248623
LINE318,192.924146,-0.832722,218.275556,3.324390,205.353102,1.247276
LINE319,0.000000,1.232416,0.000000,-1.068370,25.307528,1.245711
LINE320,0.000000,1.879510,0.000000,3.300584,25.295985,1.245598
LINE321,26.789395,-0.840955,0.000000,3.466961,0.000000,1.991324
LINE322,0.000000,-0.481492,0.000000,3.783412,25.435475,1.247743
LINE323,54.153738,-0.838315,0.000000,0.223997,0.000000,1.524373
LINE324,138.953814,-0.827148,108.692996,3.319082,50.784353,1.248623
LINE325,192.924146,-0.832722,218.275556,3.324390,205.353102,1.247276
LINE326,0.000000,3.973014,0.000000,-0.235407,25.295985,1.245598
LINE327,26.789395,-0.840955,0.000000,3.248286,0.000000,2.020326
LINE328,0.000000,-0.361745,0.000000,1.159496,25.435475,1.247743
LINE329,54.153738,-0.838315,0.000000,0.249258,0.000000,1.519205
LINE330,0.000000,-0.666664,0.000000,1.919113,25.435405,1.248778
LINE331,138.953814,-0.827148,108.692996,3.319082,25.348949,1.248467
LINE332,192.924146,-0.832722,218.275556,3.324390,205.353102,1.247276
LINE333,26.789395,-0.840955,0.000000,3.059198,0.000000,1.935448
LINE334,0.000000,3.247357,0.000000,3.807674,25.435475,1.247743
LINE335,54.153738,-0.838315,0.000000,0.243423,0.000000,1.515591
LINE336,0.000000,-0.014349,0.000000,0.588159,25.435405,1.248778
LINE337,0.000000,3.259909,26.753904,3.321895,0.000000,1.677813
LINE338,138.953814,-0.827148,81.939232,3.318164,25.348949,1.248467
LINE339,192.924146,-0.832722,218.275556,3.324390,205.353102,1.247276
LINE340,26.789395,-0.840955,0.000000,3.012757,0.000000,1.906763
LINE341,0.000000,3.384304,0.000000,-1.434547,25.435475,1.247743
LINE342,27.070662,-0.838372,0.000000,-0.701128,0.000000,3.129115
LINE343,27.083076,-0.838259,0.000000,0.232926,0.000000,1.520058
LINE344,0.000000,3.259694,26.753904,3.321895,0.000000,1.678887
LINE345,138.953814,-0.827148,81.939232,3.318164,25.348949,1.248467
LINE346,192.924146,-0.832722,218.275556,3.324390,205.353102,1.247276
LINE347,26.789395,-0.840955,0.000000,3.113679,0.000000,1.867720
LINE348,27.070662,-0.838372,0.000000,2.221466,0.000000,-1.197346
LINE349,27.083076,-0.838259,0.000000,0.792075,0.000000,1.519943
LINE350,0.000000,3.242418,26.753904,3.321895,0.000000,1.677013
LINE351,138.953814,-0.827148,81.939232,3.318164,25.348949,1.248467
LINE352,192.924146,-0.832722,218.275556,3.324390,205.353102,1.247276
LINE353,26.789395,-0.840955,0.000000,2.710106,0.000000,1.802821
LINE354,27.083076,-0.838259,0.000000,0.525139,0.000000,1.546735
LINE355,0.000000,3.034754,26.753904,3.321895,0.000000,1.987370
LINE356,138.953814,-0.827148,81.939232,3.318164,25.348949,1.248467
LINE357,192.924146,-0.832722,218.275556,3.324390,205.353102,1.247276
LINE358,26.789395,-0.840955,0.000000,2.976789,0.000000,1.752475
LINE359,27.083076,-0.838259,0.000000,0.716250,0.000000,1.447587
LINE360,0.000000,2.968685,26.753904,3.321895,0.000000,2.834214
LINE361,138.953814,-0.827148,81.939232,3.318164,25.348949,1.248467
LINE362,192.924146,-0.832722,218.275556,3.324390,205.353102,1.247276
LINE363,26.789395,-0.840955,0.000000,3.062514,0.000000,3.046220
LINE364,27.083076,-0.838259,0.000000,2.458478,0.000000,1.392113
LINE365,0.000000,2.758135,26.753904,3.321895,0.000000,4.597690
LINE366,138.953814,-0.827148,81.939232,3.318164,25.348949,1.248467
LINE367,192.924146,-0.832722,218.275556,3.324390,205.353102,1.247276
LINE368,26.789395,-0.840955,0.000000,3.122949,0.000000,3.383798
LINE369,27.083076,-0.838259,0.000000,1.396630,0.000000,1.323603
LINE370,0.000000,2.769675,26.753904,3.321895,0.000000,1.741775
LINE371,138.953814,-0.827148,81.939232,3.318164,25.348949,1.248467
LINE372,192.924146,-0.832722,218.275556,3.324390,205.353102,1.247276
LINE373,26.789395,-0.840955,0.000000,2.560184,0.000000,3.221083
LINE374,27.083076,-0.838259,0.000000,2.770939,0.000000,1.523879
LINE375,0.000000,2.807197,26.753904,3.321895,0.000000,1.723472
LINE376,138.953814,-0.827148,81.939232,3.318164,25.348949,1.248467
LINE377,192.924146,-0.832722,218.275556,3.324390,179.823722,1.247160
LINE378,0.000000,0.638094,0.000000,3.023842,25.529389,1.248089
LINE379,26.789395,-0.840955,0.000000,2.425559,0.000000,4.664111
LINE380,27.083076,-0.838259,0.000000,-0.144169,0.000000,4.522479
LINE381,0.000000,2.952614,26.753904,3.321895,0.000000,2.011558
LINE382,138.953814,-0.827148,81.939232,3.318164,25.348949,1.248467
LINE383,192.924146,-0.832722,218.275556,3.324390,179.823722,1.247160
LINE384,0.000000,-0.025416,0.000000,3.370377,25.529389,1.248089
LINE385,0.000000,1.738805,0.000000,1.877907,0.000000,1.558297
LINE386,26.789395,-0.840955,0.000000,1.563250,0.000000,4.679203
LINE387,27.083076,-0.838259,0.000000,2.833588,0.000000,1.482764
LINE388,0.000000,2.921632,26.753904,3.321895,0.000000,2.098643
LINE389,138.953814,-0.827148,81.939232,3.318164,25.348949,1.248467
LINE390,192.924146,-0.832722,218.275556,3.324390,179.823722,1.247160
LINE391,0.000000,-0.008486,0.000000,3.388704,25.529389,1.248089
LINE392,0.000000,1.676215,0.000000,1.983894,0.000000,1.559255
LINE393,0.000000,3.039434,26.753904,3.321895,0.000000,1.726042
LINE394,138.953814,-0.827148,81.939232,3.318164,25.348949,1.248467
LINE395,0.000000,0.726152,0.000000,0.057483,51.184823,1.248224
LINE396,192.924146,-0.832722,218.275556,3.324390,128.638940,1.246737
LINE397,0.000000,0.068103,0.000000,3.159231,25.529389,1.248089
LINE398,0.000000,1.650862,0.000000,1.789548,0.000000,1.560403
LINE399,0.000000,-1.505100,26.753904,3.321895,0.000000,1.735333
LINE400,138.953814,-0.827148,81.939232,3.318164,25.348949,1.248467
LINE401,0.000000,0.676843,0.000000,0.058697,51.184823,1.248224
LINE402,192.924146,-0.832722,218.275556,3.324390,128.638940,1.246737
LINE403,0.000000,0.485240,0.000000,3.691719,25.529389,1.248089
LINE404,0.000000,1.466259,0.000000,2.772298,0.000000,1.566114
LINE405,0.000000,1.369659,26.753904,3.321895,0.000000,4.614525
LINE406,138.953814,-0.827148,81.939232,3.318164,25.348949,1.248467
LINE407,0.000000,0.883592,0.000000,0.042766,51.184823,1.248224
LINE408,192.924146,-0.832722,218.275556,3.324390,128.638940,1.246737
LINE409,0.000000,-1.339377,0.000000,3.743473,0.000000,2.089419
LINE410,0.000000,0.704643,0.000000,0.062872,25.529389,1.248089
LINE411,0.000000,2.651987,0.000000,2.094753,0.000000,1.465684
LINE412,138.953814,-0.827148,81.939232,3.318164,25.348949,1.248467
LINE413,0.000000,0.469242,0.000000,0.032686,51.184823,1.248224
LINE414,192.924146,-0.832722,218.275556,3.324390,128.638940,1.246737
LINE415,0.000000,-1.156099,0.000000,3.798093,0.000000,2.119656
LINE416,0.000000,0.747825,0.000000,-0.806439,25.529389,1.248089
LINE417,0.000000,2.426850,0.000000,2.201732,0.000000,-1.221092
LINE418,138.953814,-0.827148,81.939232,3.318164,25.348949,1.248467
LINE419,0.000000,0.096542,0.000000,-0.067495,51.184823,1.248224
LINE420,192.924146,-0.832722,218.275556,3.324390,128.638940,1.246737
LINE421,0.000000,-1.119147,0.000000,3.778670,0.000000,2.135094
LINE422,0.000000,1.590323,0.000000,0.032926,25.529389,1.248089
LINE423,0.000000,1.986480,0.000000,2.290889,0.000000,-1.129176
LINE424,138.953814,-0.827148,81.939232,3.318164,25.348949,1.248467
LINE425,0.000000,0.413960,0.000000,0.413960,0.000000,3.706418
LINE426,0.000000,0.274890,0.000000,-0.093805,51.184823,1.248224
LINE427,192.924146,-0.832722,218.275556,3.324390,128.638940,1.246737
LINE428,0.000000,-0.914279,0.000000,3.796301,0.000000,1.969019
LINE429,0.000000,1.619774,0.000000,-0.104513,25.529389,1.248089
LINE430,0.000000,2.167412,0.000000,2.325225,0.000000,-1.044904
LINE431,138.953814,-0.827148,81.939232,3.318164,25.348949,1.248467
LINE432,0.000000,3.215831,0.000000,0.489824,0.000000,4.240981
LINE433,0.000000,0.225364,0.000000,-0.116656,51.184823,1.248224
LINE434,192.924146,-0.832722,218.275556,3.324390,128.638940,1.246737
LINE435,0.000000,-0.726078,0.000000,3.804508,0.000000,2.012824
LINE436,0.000000,1.606386,0.000000,3.839349,25.529389,1.248089
LINE437,0.000000,2.171904,0.000000,2.352211,0.000000,1.068618
LINE438,138.953814,-0.827148,81.939232,3.318164,25.348949,1.248467
LINE439,0.000000,-0.281299,0.000000,2.638796,0.000000,-0.615743
LINE440,0.000000,0.234744,0.000000,-0.104335,51.184823,1.248224
LINE441,192.924146,-0.832722,218.275556,3.324390,128.638940,1.246737
LINE442,0.000000,-0.438063,0.000000,3.810765,0.000000,1.932986
LINE443,0.000000,1.775919,0.000000,0.369173,25.529389,1.248089
LINE444,0.000000,2.408480,0.000000,2.380031,0.000000,1.400638
LINE445,138.953814,-0.827148,81.939232,3.318164,25.348949,1.248467
LINE446,0.000000,2.939912,0.000000,2.939912,0.000000,-0.145406
LINE447,0.000000,0.321217,0.000000,-0.090915,51.184823,1.248224
LINE448,192.924146,-0.832722,218.275556,3.324390,128.638940,1.246737
LINE449,0.000000,-0.526026,0.000000,3.756353,0.000000,2.006500
LINE450,0.000000,-0.533341,0.000000,2.594030,25.529389,1.248089
LINE451,0.000000,2.552466,0.000000,2.609848,0.000000,1.289300
LINE452,138.953814,-0.827148,81.939232,3.318164,25.348949,1.248467
LINE453,0.000000,2.939912,0.000000,2.939912,0.000000,-0.145406
LINE454,0.000000,0.282727,0.000000,-0.064756,51.184823,1.248224
LINE455,192.924146,-0.832722,218.275556,3.324390,128.638940,1.246737
LINE456,0.000000,-0.678140,0.000000,3.513557,0.000000,2.098600
LINE457,0.000000,2.726729,0.000000,2.726729,25.529389,1.248089
LINE458,0.000000,2.359474,0.000000,2.513774,0.000000,1.127089
LINE459,111.306870,-0.826538,81.939232,3.318164,25.348949,1.248467
LINE460,0.000000,0.170745,0.000000,2.438466,0.000000,-1.491191
LINE461,27.647048,-0.829604,0.000000,0.317802,0.000000,-1.540080
LINE462,0.000000,0.265769,0.000000,-0.081210,51.184823,1.248224
LINE463,192.924146,-0.832722,218.275556,3.324390,128.638940,1.246737
LINE464,0.000000,2.704379,0.000000,3.332103,0.000000,2.101499
LINE465,0.000000,2.184840,0.000000,2.557923,0.000000,-1.101908
LINE466,111.306870,-0.826538,81.939232,3.318164,25.348949,1.248467
LINE467,0.000000,2.939912,0.000000,2.939912,0.000000,-0.145406
LINE468,0.000000,2.939912,0.000000,2.939912,0.000000,-0.145406
LINE469,27.647048,-0.829604,0.000000,0.428688,0.000000,-1.552418
LINE470,0.000000,0.464958,0.000000,-0.025597,51.184823,1.248224
LINE471,192.924146,-0.832722,218.275556,3.324390,128.638940,1.246737
LINE472,0.000000,1.903947,0.000000,3.397365,0.000000,2.227957
LINE473,0.000000,2.219000,0.000000,2.432709,0.000000,-0.285116
LINE474,111.306870,-0.826538,81.939232,3.318164,25.348949,1.248467
LINE475,0.000000,4.414683,0.000000,3.469430,0.000000,1.245070
LINE476,27.647048,-0.829604,0.000000,0.643706,0.000000,-1.546951
LINE477,0.000000,0.599995,0.000000,-0.078268,51.184823,1.248224
LINE478,192.924146,-0.832722,218.275556,3.324390,128.638940,1.246737
LINE479,0.000000,1.945545,0.000000,3.172119,0.000000,2.207359
LINE480,0.000000,2.276805,0.000000,2.607268,0.000000,-0.582355
LINE481,55.701015,-0.825756,81.939232,3.318164,25.348949,1.248467
LINE482,0.000000,3.345364,0.000000,-0.459579,0.000000,1.593805
LINE483,55.605890,-0.827321,0.000000,-0.026193,0.000000,-1.550025
LINE484,27.647048,-0.829604,0.000000,0.707275,0.000000,-1.543635
LINE485,0.000000,0.854691,0.000000,0.012412,51.184823,1.248224
LINE486,192.924146,-0.832722,218.275556,3.324390,128.638940,1.246737
LINE487,0.000000,1.984222,0.000000,3.172766,0.000000,2.075676
LINE488,0.000000,3.559079,0.000000,2.823520,0.000000,1.422082
LINE489,55.701015,-0.825756,81.939232,3.318164,25.348949,1.248467
LINE490,0.000000,2.939912,0.000000,-0.137525,0.000000,0.029384
LINE491,27.800662,-0.827341,0.000000,-0.039629,0.000000,-1.569541
LINE492,27.805228,-0.827301,0.000000,3.956270,0.000000,-1.553265
LINE493,27.647048,-0.829604,0.000000,0.707229,0.000000,-1.562456
LINE494,0.000000,1.356450,0.000000,0.083364,51.184823,1.248224
LINE495,192.924146,-0.832722,218.275556,3.324390,128.638940,1.246737
LINE496,0.000000,2.022820,0.000000,3.071946,0.000000,2.155187
LINE497,0.000000,2.587437,0.000000,2.816847,0.000000,-1.506908
LINE498,55.701015,-0.825756,81.939232,3.318164,25.348949,1.248467
LINE499,0.000000,-0.201681,0.000000,-0.201681,0.000000,2.996186
LINE500,27.800662,-0.827341,0.000000,-0.009913,0.000000,4.696057
LINE501,27.805228,-0.827301,0.000000,-0.060562,0.000000,-1.560677
LINE502,27.647048,-0.829604,0.000000,0.705371,0.000000,-1.559103
LINE503,0.000000,1.188954,0.000000,0.334306,51.184823,1.248224
LINE504,192.924146,-0.832722,218.275556,3.324390,128.638940,1.246737
LINE505,0.000000,2.120190,0.000000,3.072886,0.000000,2.303866
LINE506,0.000000,2.992017,0.000000,2.992017,0.000000,-0.075346
LINE507,55.701015,-0.825756,81.939232,3.318164,25.348949,1.248467
LINE508,0.000000,-0.619155,0.000000,3.508462,0.000000,1.759436
LINE509,27.800662,-0.827341,0.000000,0.063814,0.000000,4.691352
LINE510,27.647048,-0.829604,0.000000,0.593738,0.000000,-1.565605
LINE511,0.000000,2.732027,0.000000,0.126054,51.184823,1.248224
LINE512,0.000000,4.051263,26.901555,3.324383,0.000000,-1.488419
LINE513,192.924146,-0.832722,191.374001,3.324391,128.638940,1.246737
LINE514,0.000000,2.310961,0.000000,3.051589,0.000000,2.275784
LINE515,0.000000,0.466439,81.939232,3.318164,25.348949,1.248467
LINE516,0.000000,-0.201681,0.000000,-0.201681,0.000000,2.996186
LINE517,55.701015,-0.825756,0.000000,3.600625,0.000000,0.961498
LINE518,27.800662,-0.827341,0.000000,0.215880,0.000000,4.707519
LINE519,27.647048,-0.829604,0.000000,0.574686,0.000000,4.698597
LINE520,0.000000,1.643203,0.000000,0.051417,51.184823,1.248224
LINE521,0.000000,1.114169,26.901555,3.324383,0.000000,-1.545221
LINE522,192.924146,-0.832722,191.374001,3.324391,128.638940,1.246737
LINE523,0.000000,1.967984,0.000000,3.304031,0.000000,2.141795
LINE524,0.000000,0.464374,81.939232,3.318164,25.348949,1.248467
LINE525,0.000000,2.483416,0.000000,2.483416,0.000000,-1.258692
LINE526,55.701015,-0.825756,0.000000,3.619418,0.000000,0.950598
LINE527,27.800662,-0.827341,0.000000,0.125941,0.000000,-1.544759
LINE528,27.647048,-0.829604,0.000000,1.521033,0.000000,4.612720
LINE529,0.000000,2.836485,0.000000,0.394629,51.184823,1.248224
LINE530,192.924146,-0.832722,191.374001,3.324391,128.638940,1.246737
LINE531,0.000000,-1.231756,0.000000,3.300245,0.000000,2.663952
LINE532,0.000000,0.463331,81.939232,3.318164,25.348949,1.248467
LINE533,0.000000,-0.201681,0.000000,-0.201681,0.000000,2.996186
LINE534,55.701015,-0.825756,0.000000,3.583001,0.000000,0.933938
LINE535,27.800662,-0.827341,0.000000,-0.108193,0.000000,-1.547900
LINE536,27.647048,-0.829604,0.000000,2.969006,0.000000,4.629489
LINE537,0.000000,0.145798,0.000000,3.245096,25.599055,1.248288
LINE538,0.000000,3.303060,0.000000,3.303060,25.585768,1.248160
LINE539,192.924146,-0.832722,191.374001,3.324391,128.638940,1.246737
LINE540,0.000000,1.611337,0.000000,2.801060,0.000000,-0.953547
LINE541,0.000000,0.447457,81.939232,3.318164,25.348949,1.248467
LINE542,0.000000,-0.578473,0.000000,0.640484,0.000000,-1.461731
LINE543,55.701015,-0.825756,0.000000,3.635209,0.000000,1.010369
LINE544,27.800662,-0.827341,0.000000,-0.301132,0.000000,-1.536109
LINE545,27.647048,-0.829604,0.000000,2.957415,0.000000,4.585529
LINE546,0.000000,2.700639,0.000000,2.700639,25.599055,1.248288
LINE547,192.924146,-0.832722,191.374001,3.324391,128.638940,1.246737
LINE548,0.000000,2.266093,0.000000,1.801350,0.000000,4.651959
LINE549,0.000000,0.456286,81.939232,3.318164,25.348949,1.248467
LINE550,0.000000,0.000000,0.000000,0.000000,0.000000,0.000000
LINE551,27.849942,-0.825761,0.000000,3.905905,0.000000,1.232857
LINE552,27.851073,-0.825751,0.000000,0.768765,0.000000,-1.407993
LINE553,27.800662,-0.827341,0.000000,3.429134,0.000000,1.568444
LINE554,27.647048,-0.829604,0.000000,3.012485,0.000000,4.611715
LINE555,0.000000,3.913115,0.000000,3.264148,25.599055,1.248288
LINE556,192.924146,-0.832722,191.374001,3.324391,128.638940,1.246737
LINE557,0.000000,2.126369,0.000000,2.185756,0.000000,4.284915
LINE558,0.000000,0.448201,81.939232,3.318164,25.348949,1.248467
LINE559,0.000000,0.159796,0.000000,-1.417114,0.000000,4.264071
LINE560,27.849942,-0.825761,0.000000,-0.873125,0.000000,0.674995
LINE561,27.851073,-0.825751,0.000000,1.095968,0.000000,1.467672
LINE562,27.800662,-0.827341,0.000000,0.268241,0.000000,-1.567014
LINE563,27.647048,-0.829604,0.000000,3.426199,0.000000,1.792525
LINE564,192.924146,-0.832722,191.374001,3.324391,128.638940,1.246737
LINE565,0.000000,3.748782,0.000000,-1.398956,0.000000,1.430868
LINE566,0.000000,0.413062,27.300929,3.318222,25.348949,1.248467
LINE567,0.000000,1.519663,0.000000,1.794768,0.000000,0.953697
LINE568,0.000000,0.882048,54.638303,3.318134,0.000000,-1.406587
LINE569,27.849942,-0.825761,0.000000,3.973330,0.000000,1.457337
LINE570,27.647048,-0.829604,0.000000,2.104324,0.000000,4.622567
LINE571,192.924146,-0.832722,191.374001,3.324391,128.638940,1.246737
LINE572,0.000000,0.292618,27.300929,3.318222,25.348949,1.248467
LINE573,0.000000,1.245564,0.000000,2.236063,0.000000,1.426744
LINE574,0.000000,0.734032,54.638303,3.318134,0.000000,-1.535938
LINE575,27.849942,-0.825761,0.000000,3.444827,0.000000,1.582094
LINE576,27.647048,-0.829604,0.000000,0.712415,0.000000,1.604175
LINE577,192.924146,-0.832722,191.374001,3.324391,128.638940,1.246737
LINE578,0.000000,-0.303602,27.300929,3.318222,25.348949,1.248467
LINE579,0.000000,2.939912,0.000000,2.939912,0.000000,-0.145406
LINE580,0.000000,0.242262,0.000000,0.851992,0.000000,1.418878
LINE581,0.000000,1.789964,54.638303,3.318134,0.000000,-1.457527
LINE582,27.849942,-0.825761,0.000000,4.703396,0.000000,1.595710
LINE583,27.647048,-0.829604,0.000000,2.959680,0.000000,1.449441
LINE584,0.000000,4.485154,26.943254,3.324479,0.000000,1.566184
LINE585,192.924146,-0.832722,164.430747,3.324376,128.638940,1.246737
LINE586,0.000000,-0.794303,27.300929,3.318222,25.348949,1.248467
LINE587,0.000000,4.601333,0.000000,1.183823,0.000000,4.657460
LINE588,0.000000,0.156567,0.000000,1.013589,0.000000,1.361282
LINE589,0.000000,1.874438,54.638303,3.318134,0.000000,-1.531928
LINE590,27.849942,-0.825761,0.000000,0.008925,0.000000,1.687269
LINE591,27.647048,-0.829604,0.000000,3.438232,0.000000,-1.512067
LINE592,0.000000,4.484577,26.943254,3.324479,0.000000,1.562562
LINE593,192.924146,-0.832722,164.430747,3.324376,128.638940,1.246737
LINE594,0.000000,-1.398421,27.300929,3.318222,0.000000,1.223537
LINE595,0.000000,2.820875,0.000000,2.820875,25.348949,1.248467
LINE596,0.000000,0.117804,0.000000,1.042051,0.000000,1.542529
LINE597,0.000000,1.973137,54.638303,3.318134,0.000000,-1.546771
LINE598,27.849942,-0.825761,0.000000,-0.855039,0.000000,4.620301
LINE599,27.647048,-0.829604,0.000000,3.173045,0.000000,4.347138
LINE600,0.000000,4.557008,26.943254,3.324479,0.000000,1.577215
LINE601,0.000000,2.862198,0.000000,0.047524,25.629538,1.246979
LINE602,192.924146,-0.832722,164.430747,3.324376,103.009403,1.246676
LINE603,0.000000,3.682307,27.300929,3.318222,0.000000,1.629941
LINE604,0.000000,-1.074169,0.000000,2.922556,0.000000,4.589044
LINE605,0.000000,-0.404473,0.000000,1.691276,0.000000,2.292796
LINE606,0.000000,1.516233,0.000000,4.610886,25.348949,1.248467
LINE607,0.000000,2.992017,0.000000,2.992017,0.000000,-0.075346
LINE608,0.000000,-0.005521,0.000000,1.579029,0.000000,1.440984
LINE609,0.000000,2.122584,54.638303,3.318134,0.000000,-1.538232
LINE610,27.849942,-0.825761,0.000000,3.688959,0.000000,4.655326
LINE611,27.647048,-0.829604,0.000000,-0.335791,0.000000,-1.539685
LINE612,0.000000,4.564863,26.943254,3.324479,0.000000,1.549083
LINE613,0.000000,2.852542,0.000000,0.072281,25.629538,1.246979
LINE614,192.924146,-0.832722,164.430747,3.324376,103.009403,1.246676
LINE615,0.000000,-1.174667,27.300929,3.318222,0.000000,1.556353
LINE616,0.000000,-0.201681,0.000000,-0.201681,0.000000,2.996186
LINE617,0.000000,4.516097,0.000000,4.516097,0.000000,1.099389
LINE618,0.000000,2.407537,0.000000,3.725923,25.348949,1.248467
LINE619,0.000000,-0.103408,0.000000,1.002398,0.000000,1.086298
LINE620,0.000000,1.909252,54.638303,3.318134,0.000000,-1.531149
LINE621,27.647048,-0.829604,0.000000,4.409532,0.000000,1.664448
LINE622,0.000000,4.253029,26.943254,3.324479,0.000000,1.538669
LINE623,0.000000,3.843336,27.024638,3.323726,0.000000,4.457893
LINE624,192.924146,-0.832722,137.406116,3.324504,103.009403,1.246676
LINE625,0.000000,-1.050312,27.300929,3.318222,0.000000,1.563102
LINE626,0.000000,-0.044959,0.000000,2.486026,0.000000,1.019528
LINE627,0.000000,1.917311,54.638303,3.318134,0.000000,-1.521334
LINE628,27.647048,-0.829604,0.000000,1.537097,0.000000,-1.504306
LINE629,0.000000,4.077608,26.943254,3.324479,0.000000,1.417130
LINE630,0.000000,3.603812,27.024638,3.323726,0.000000,4.510666
LINE631,192.924146,-0.832722,137.406116,3.324504,103.009403,1.246676
LINE632,0.000000,-0.531166,27.300929,3.318222,0.000000,1.596755
LINE633,0.000000,-0.032897,0.000000,1.325231,0.000000,0.647997
LINE634,0.000000,1.967472,54.638303,3.318134,0.000000,-1.567102
LINE635,0.000000,4.144279,26.943254,3.324479,0.000000,1.484301
LINE636,0.000000,4.649727,27.024638,3.323726,0.000000,4.329914
LINE637,192.924146,-0.832722,137.406116,3.324504,103.009403,1.246676
LINE638,0.000000,0.000000,27.300929,3.318222,0.000000,-0.067519
LINE639,0.000000,0.216330,0.000000,2.821680,0.000000,1.073341
LINE640,0.000000,1.741851,54.638303,3.318134,0.000000,-1.560767
LINE641,0.000000,4.057208,26.943254,3.324479,0.000000,1.506986
LINE642,0.000000,4.315551,27.024638,3.323726,0.000000,1.649683
LINE643,192.924146,-0.832722,137.406116,3.324504,103.009403,1.246676
LINE644,0.000000,-0.246099,0.000000,1.304937,0.000000,-1.307406
LINE645,0.000000,2.100515,54.638303,3.318134,0.000000,4.693679
LINE646,0.000000,4.095752,26.943254,3.324479,0.000000,1.505508
LINE647,0.000000,4.069700,27.024638,3.323726,0.000000,1.669437
LINE648,192.924146,-0.832722,137.406116,3.324504,103.009403,1.246676
LINE649,0.000000,1.215782,0.000000,0.272090,0.000000,-1.148871
LINE650,0.000000,2.422490,54.638303,3.318134,0.000000,4.673861
LINE651,0.000000,4.053480,26.943254,3.324479,0.000000,1.481967
LINE652,0.000000,3.570371,27.024638,3.323726,0.000000,1.712002
LINE653,192.924146,-0.832722,137.406116,3.324504,103.009403,1.246676
LINE654,0.000000,1.298585,0.000000,0.229058,0.000000,4.222713
LINE655,0.000000,2.700559,27.320451,3.318146,0.000000,4.592075
LINE656,0.000000,-0.514470,27.317852,3.318123,0.000000,1.546880
LINE657,0.000000,4.098672,26.943254,3.324479,0.000000,1.433295
LINE658,0.000000,3.498552,27.024638,3.323726,0.000000,1.664038
LINE659,192.924146,-0.832722,137.406116,3.324504,103.009403,1.246676
LINE660,0.000000,-0.119803,0.000000,0.099195,0.000000,1.138641
LINE661,0.000000,2.817539,27.320451,3.318146,0.000000,4.518815
LINE662,0.000000,0.559265,27.317852,3.318123,0.000000,1.524895
LINE663,0.000000,4.171370,26.943254,3.324479,0.000000,1.452503
LINE664,0.000000,4.167453,27.024638,3.323726,0.000000,1.605668
LINE665,192.924146,-0.832722,137.406116,3.324504,103.009403,1.246676
LINE666,0.000000,1.953696,0.000000,0.059361,0.000000,1.359468
LINE667,0.000000,3.310548,27.320451,3.318146,0.000000,4.629746
LINE668,0.000000,0.030915,27.317852,3.318123,0.000000,1.712993
LINE669,0.000000,4.217578,26.943254,3.324479,0.000000,1.499968
LINE670,0.000000,3.675992,27.024638,3.323726,0.000000,1.522404
LINE671,82.475168,-0.834676,0.000000,-0.335382,0.000000,1.819542
LINE672,110.449252,-0.831263,137.406116,3.324504,103.009403,1.246676
LINE673,0.000000,-1.188226,0.000000,-0.677451,0.000000,1.097522
LINE674,0.000000,-0.317082,27.320451,3.318146,0.000000,0.765135
LINE675,0.000000,0.160882,27.317852,3.318123,0.000000,1.864707
LINE676,0.000000,4.485369,26.943254,3.324479,0.000000,1.535338
LINE677,0.000000,-0.097513,27.024638,3.323726,0.000000,1.547619
LINE678,82.475168,-0.834676,0.000000,-0.421534,0.000000,1.910273
LINE679,110.449252,-0.831263,137.406116,3.324504,103.009403,1.246676
LINE680,0.000000,-0.141069,0.000000,2.939912,0.000000,2.757629
LINE681,0.000000,-0.475091,27.320451,3.318146,0.000000,-1.569509
LINE682,0.000000,4.228832,26.943254,3.324479,0.000000,1.542955
LINE683,0.000000,0.501069,27.024638,3.323726,0.000000,2.072862
LINE684,82.475168,-0.834676,0.000000,-0.518408,0.000000,1.641940
LINE685,110.449252,-0.831263,137.406116,3.324504,103.009403,1.246676
LINE686,0.000000,4.139260,26.943254,3.324479,0.000000,1.501282
LINE687,0.000000,3.017896,27.024638,3.323726,0.000000,1.616998
LINE688,82.475168,-0.834676,0.000000,0.139679,0.000000,1.619319
LINE689,0.000000,0.860388,0.000000,3.067676,51.406142,1.247248
LINE690,110.449252,-0.831263,137.406116,3.324504,51.603278,1.246107
LINE691,0.000000,4.194817,26.943254,3.324479,0.000000,1.487912
LINE692,82.475168,-0.834676,0.000000,2.509730,0.000000,1.594205
LINE693,0.000000,1.073685,0.000000,3.062291,25.704508,1.247262
LINE694,0.000000,4.643336,0.000000,3.274907,25.701634,1.247235
LINE695,0.000000,-1.224263,27.164991,3.323517,0.000000,-1.474593
LINE696,110.449252,-0.831263,110.241141,3.324747,51.603278,1.246107
LINE697,0.000000,4.198292,26.943254,3.324479,0.000000,1.445538
LINE698,82.475168,-0.834676,0.000000,-0.013470,0.000000,2.164149
LINE699,0.000000,1.857023,0.000000,2.982891,25.704508,1.247262
LINE700,0.000000,3.849963,0.000000,1.230777,25.701634,1.247235
LINE701,0.000000,2.616329,27.164991,3.323517,0.000000,4.657111
LINE702,110.449252,-0.831263,110.241141,3.324747,51.603278,1.246107
LINE703,0.000000,4.135429,26.943254,3.324479,0.000000,1.443500
LINE704,82.475168,-0.834676,0.000000,0.207936,0.000000,2.056821
LINE705,0.000000,1.287094,0.000000,3.038934,25.704508,1.247262
LINE706,110.449252,-0.831263,110.241141,3.324747,51.603278,1.246107
LINE707,0.000000,2.434908,0.000000,0.457003,0.000000,4.594731
LINE708,0.000000,4.133703,26.943254,3.324479,0.000000,1.440532
LINE709,82.475168,-0.834676,0.000000,0.165486,0.000000,2.314578
LINE710,0.000000,0.115126,0.000000,3.194809,25.704508,1.247262
LINE711,55.365330,-0.829460,110.241141,3.324747,51.603278,1.246107
LINE712,55.084103,-0.833075,0.000000,0.583196,0.000000,1.625704
LINE713,0.000000,2.516942,0.000000,0.606186,0.000000,4.553209
LINE714,0.000000,4.103395,26.943254,3.324479,0.000000,1.342655
LINE715,82.475168,-0.834676,0.000000,0.163240,0.000000,2.177537
LINE716,0.000000,0.768526,0.000000,3.297426,25.704508,1.247262
LINE717,55.365330,-0.829460,110.241141,3.324747,51.603278,1.246107
LINE718,55.084103,-0.833075,0.000000,0.562320,0.000000,1.626197
LINE719,0.000000,2.332681,0.000000,0.571650,0.000000,3.593568
LINE720,0.000000,4.092930,26.943254,3.324479,0.000000,1.510425
LINE721,82.475168,-0.834676,0.000000,0.150695,0.000000,2.235891
LINE722,0.000000,1.437825,0.000000,2.828371,25.704508,1.247262
LINE723,55.365330,-0.829460,55.369543,3.324854,51.603278,1.246107
LINE724,0.000000,-0.185716,54.871599,3.324639,0.000000,1.650136
LINE725,55.084103,-0.833075,0.000000,0.787262,0.000000,1.614315
LINE726,0.000000,2.484252,0.000000,0.623129,0.000000,4.373850
LINE727,0.000000,4.178910,26.943254,3.324479,0.000000,1.419765
LINE728,82.475168,-0.834676,0.000000,0.126024,0.000000,2.233610
LINE729,0.000000,2.392532,0.000000,3.285038,25.704508,1.247262
LINE730,55.365330,-0.829460,55.369543,3.324854,51.603278,1.246107
LINE731,0.000000,-0.181208,54.871599,3.324639,0.000000,1.657148
LINE732,55.084103,-0.833075,0.000000,0.541187,0.000000,1.596897
LINE733,0.000000,2.156984,0.000000,0.716611,0.000000,4.072560
LINE734,0.000000,4.373134,26.943254,3.324479,0.000000,0.773964
LINE735,82.475168,-0.834676,0.000000,0.101534,0.000000,2.014425
LINE736,0.000000,2.033240,0.000000,0.770024,25.704508,1.247262
LINE737,55.365330,-0.829460,55.369543,3.324854,51.603278,1.246107
LINE738,0.000000,-0.173023,54.871599,3.324639,0.000000,1.656760
LINE739,55.084103,-0.833075,0.000000,0.850470,0.000000,1.600222
LINE740,0.000000,2.260956,0.000000,0.611533,0.000000,3.960832
LINE741,0.000000,-1.440637,26.943254,3.324479,0.000000,1.459682
LINE742,82.475168,-0.834676,0.000000,0.108319,0.000000,3.780583
LINE743,0.000000,2.200596,0.000000,1.324071,25.704508,1.247262
LINE744,55.365330,-0.829460,55.369543,3.324854,51.603278,1.246107
LINE745,0.000000,4.077567,27.437783,3.324657,0.000000,-1.561641
LINE746,0.000000,-0.319753,27.433817,3.324621,0.000000,1.552397
LINE747,55.084103,-0.833075,0.000000,0.355684,0.000000,1.608866
LINE748,0.000000,2.417112,0.000000,0.594436,0.000000,4.001624
LINE749,0.000000,4.234035,26.943254,3.324479,0.000000,4.488467
LINE750,82.475168,-0.834676,0.000000,0.194737,0.000000,4.380432
LINE751,0.000000,2.967600,0.000000,1.807375,25.704508,1.247262
LINE752,55.365330,-0.829460,55.369543,3.324854,0.000000,1.599812
LINE753,0.000000,-0.399339,0.000000,-1.570223,51.603278,1.246107
LINE754,0.000000,3.765621,27.437783,3.324657,0.000000,-1.476083
LINE755,0.000000,-0.045540,27.433817,3.324621,0.000000,1.546079
LINE756,55.084103,-0.833075,0.000000,0.461503,0.000000,1.620199
LINE757,0.000000,2.434083,0.000000,0.518706,0.000000,4.084210
LINE758,0.000000,2.754191,26.943254,3.324479,0.000000,-1.565792
LINE759,82.475168,-0.834676,0.000000,0.213279,0.000000,4.370582
LINE760,0.000000,2.934252,0.000000,0.031682,25.704508,1.247262
LINE761,55.365330,-0.829460,55.369543,3.324854,0.000000,1.679575
LINE762,0.000000,-0.401041,0.000000,-1.562436,51.603278,1.246107
LINE763,0.000000,0.074769,27.433817,3.324621,0.000000,4.580376
LINE764,55.084103,-0.833075,0.000000,0.347211,0.000000,1.616267
LINE765,0.000000,2.290156,0.000000,0.556856,0.000000,4.080003
LINE766,0.000000,1.194203,26.943254,3.324479,0.000000,1.559424
LINE767,82.475168,-0.834676,0.000000,0.276679,0.000000,4.523316
LINE768,0.000000,-0.394214,0.000000,-1.560831,25.704508,1.247262
LINE769,55.365330,-0.829460,55.369543,3.324854,0.000000,1.764706
LINE770,0.000000,0.241654,0.000000,3.270152,25.804013,1.246129
LINE771,0.000000,-0.427262,0.000000,4.694722,25.799265,1.246084
LINE772,0.000000,-0.081276,27.433817,3.324621,0.000000,-0.780707
LINE773,55.084103,-0.833075,0.000000,0.432727,0.000000,1.604973
LINE774,0.000000,2.465999,0.000000,0.514099,0.000000,4.706714
LINE775,0.000000,-0.691662,26.943254,3.324479,0.000000,4.657885
LINE776,82.475168,-0.834676,0.000000,0.329952,0.000000,4.498780
LINE777,0.000000,-0.243785,0.000000,3.515222,25.704508,1.247262
LINE778,55.365330,-0.829460,55.369543,3.324854,0.000000,1.661552
LINE779,0.000000,0.085039,0.000000,3.609715,25.804013,1.246129
LINE780,0.000000,-0.530542,0.000000,4.348805,25.799265,1.246084
LINE781,0.000000,0.166004,27.433817,3.324621,0.000000,4.379660
LINE782,55.084103,-0.833075,0.000000,0.550966,0.000000,1.602909
LINE783,0.000000,1.918423,0.000000,0.710491,0.000000,-1.333783
LINE784,0.000000,3.286685,26.943254,3.324479,0.000000,1.463578
LINE785,82.475168,-0.834676,0.000000,0.234222,0.000000,4.419641
LINE786,55.365330,-0.829460,55.369543,3.324854,0.000000,1.833748
LINE787,0.000000,-0.504741,0.000000,4.579107,25.799265,1.246084
LINE788,0.000000,-0.034104,27.433817,3.324621,0.000000,-1.538206
LINE789,55.084103,-0.833075,0.000000,0.825498,0.000000,1.603792
LINE790,0.000000,0.995351,0.000000,1.688518,0.000000,4.516657
LINE791,54.983377,-0.834676,0.000000,0.167157,0.000000,4.454632
LINE792,27.491791,-0.834675,0.000000,0.247785,0.000000,1.093857
LINE793,55.365330,-0.829460,55.369543,3.324854,0.000000,1.815955
LINE794,0.000000,-0.708690,0.000000,4.513690,25.799265,1.246084
LINE795,0.000000,-0.143334,27.433817,3.324621,0.000000,4.638049
LINE796,55.084103,-0.833075,0.000000,0.556822,0.000000,1.604787
LINE797,0.000000,2.856496,0.000000,2.676933,0.000000,1.211180
LINE798,54.983377,-0.834676,0.000000,0.173021,0.000000,3.607818
LINE799,27.491791,-0.834675,0.000000,-0.189841,0.000000,1.540195
LINE800,55.365330,-0.829460,0.000000,3.731666,0.000000,1.423773
LINE801,0.000000,2.655185,55.369543,3.324854,0.000000,4.031492
LINE802,0.000000,-0.720162,0.000000,4.324514,25.799265,1.246084
LINE803,0.000000,3.368574,27.433817,3.324621,0.000000,4.688520
LINE804,55.084103,-0.833075,0.000000,0.108364,0.000000,1.606541
LINE805,0.000000,3.005585,0.000000,1.076740,0.000000,4.431013
LINE806,54.983377,-0.834676,0.000000,0.258956,0.000000,2.773092
LINE807,27.491791,-0.834675,0.000000,0.006413,0.000000,1.473785
LINE808,55.365330,-0.829460,0.000000,3.735679,0.000000,-0.583698
LINE809,0.000000,3.133919,55.369543,3.324854,0.000000,4.289426
LINE810,0.000000,-0.961704,0.000000,2.779584,0.000000,1.752459
LINE811,0.000000,-0.997514,0.000000,4.076045,25.799265,1.246084
LINE812,0.000000,-1.565832,27.433817,3.324621,0.000000,0.829896
LINE813,55.084103,-0.833075,0.000000,0.331946,0.000000,1.615627
LINE814,0.000000,4.359306,0.000000,3.648110,0.000000,1.779446
LINE815,54.983377,-0.834676,0.000000,1.267561,0.000000,2.369112
LINE816,27.491791,-0.834675,0.000000,3.253169,0.000000,-1.050315
LINE817,55.365330,-0.829460,0.000000,3.657717,0.000000,-1.322890
LINE818,0.000000,1.347661,55.369543,3.324854,0.000000,3.934194
LINE819,0.000000,4.513882,0.000000,3.516497,0.000000,4.327319
LINE820,0.000000,1.751322,0.000000,4.602950,25.799265,1.246084
LINE821,55.084103,-0.833075,0.000000,0.018509,0.000000,1.620880
LINE822,0.000000,-1.029591,0.000000,3.166251,0.000000,1.564821
LINE823,54.983377,-0.834676,0.000000,3.399420,0.000000,1.723198
LINE824,55.365330,-0.829460,0.000000,3.667712,0.000000,-1.464236
LINE825,0.000000,0.670860,55.369543,3.324854,0.000000,4.619897
LINE826,0.000000,-1.018432,0.000000,1.960906,0.000000,1.899195
LINE827,0.000000,3.302034,0.000000,3.088948,25.799265,1.246084
LINE828,55.084103,-0.833075,0.000000,0.075944,0.000000,1.629128
LINE829,0.000000,1.374856,0.000000,4.574777,0.000000,1.557817
LINE830,54.983377,-0.834676,0.000000,3.480711,0.000000,4.536016
LINE831,55.365330,-0.829460,0.000000,3.423298,0.000000,-1.518540
LINE832,0.000000,0.721202,55.369543,3.324854,0.000000,-0.761462
LINE833,0.000000,-1.441679,0.000000,3.135361,0.000000,1.009717
LINE834,0.000000,-0.723714,0.000000,1.771105,25.799265,1.246084
LINE835,55.084103,-0.833075,0.000000,0.035075,0.000000,1.632971
LINE836,54.983377,-0.834676,0.000000,0.354201,0.000000,4.508048
LINE837,55.365330,-0.829460,0.000000,3.333460,0.000000,-1.560682
LINE838,0.000000,0.381003,55.369543,3.324854,0.000000,1.356677
LINE839,0.000000,2.092551,0.000000,0.902410,0.000000,4.690363
LINE840,55.084103,-0.833075,0.000000,0.015845,0.000000,1.634462
LINE841,54.983377,-0.834676,0.000000,0.711318,0.000000,4.562473
LINE842,55.365330,-0.829460,0.000000,3.048316,0.000000,-1.556160
LINE843,0.000000,-0.357022,55.369543,3.324854,0.000000,1.550861
LINE844,0.000000,2.750959,0.000000,-0.741991,0.000000,1.073776
LINE845,0.000000,1.415853,0.000000,4.541948,0.000000,4.409516
LINE846,55.084103,-0.833075,0.000000,0.036367,0.000000,1.633161
LINE847,54.983377,-0.834676,0.000000,3.863616,0.000000,1.721858
LINE848,55.365330,-0.829460,0.000000,3.409842,0.000000,-1.520082
LINE849,0.000000,-0.312497,55.369543,3.324854,0.000000,1.575029
LINE850,0.000000,2.691789,0.000000,-0.657512,0.000000,1.271615
LINE851,0.000000,3.211167,0.000000,-0.647536,0.000000,-1.323625
LINE852,55.084103,-0.833075,0.000000,0.058093,0.000000,1.652076
LINE853,54.983377,-0.834676,0.000000,3.676091,0.000000,1.596506
LINE854,55.365330,-0.829460,0.000000,3.392105,0.000000,-1.518872
LINE855,0.000000,-0.296751,55.369543,3.324854,0.000000,1.564832
LINE856,0.000000,2.701345,0.000000,-0.489547,0.000000,-0.504688
LINE857,0.000000,3.600974,0.000000,3.021467,0.000000,3.413924
LINE858,55.084103,-0.833075,0.000000,0.141103,0.000000,1.691799
LINE859,27.482533,-0.834758,0.000000,3.057446,0.000000,4.590516
LINE860,27.500844,-0.834594,0.000000,3.968711,0.000000,4.569808
LINE861,55.365330,-0.829460,0.000000,3.417927,0.000000,-1.514863
LINE862,0.000000,-0.312497,55.369543,3.324854,0.000000,1.575520
LINE863,0.000000,2.646497,0.000000,-0.911159,0.000000,1.053765
LINE864,0.000000,-0.201681,0.000000,-0.201681,0.000000,2.996186
LINE865,55.084103,-0.833075,0.000000,0.909679,0.000000,1.617912
LINE866,55.365330,-0.829460,0.000000,3.432432,0.000000,-1.516465
LINE867,0.000000,-0.531166,55.369543,3.324854,0.000000,1.619933
LINE868,0.000000,2.998645,0.000000,-0.477344,0.000000,1.204351
LINE869,0.000000,-0.183863,0.000000,3.031738,0.000000,-1.351166
LINE870,55.084103,-0.833075,0.000000,1.223366,0.000000,1.655558
LINE871,55.365330,-0.829460,0.000000,3.402710,0.000000,-1.513142
LINE872,0.000000,2.288676,27.688697,3.324891,0.000000,1.596755
LINE873,0.000000,0.000000,27.680846,3.324818,0.000000,3.074074
LINE874,0.000000,3.361926,0.000000,4.562811,0.000000,1.636981
LINE875,0.000000,3.363462,0.000000,2.838767,0.000000,1.152081
LINE876,55.084103,-0.833075,0.000000,0.120402,0.000000,1.578365
LINE877,55.365330,-0.829460,0.000000,3.420231,0.000000,-1.514887
LINE878,0.000000,1.503278,27.688697,3.324891,0.000000,1.658274
LINE879,0.000000,1.503278,27.680846,3.324818,0.000000,1.487654
LINE880,0.000000,4.538347,0.000000,1.462592,0.000000,1.076585
LINE881,0.000000,-0.493955,0.000000,3.735506,0.000000,1.682517
LINE882,55.084103,-0.833075,0.000000,0.720090,0.000000,1.960910
LINE883,55.365330,-0.829460,0.000000,3.407024,0.000000,-1.524352
LINE884,0.000000,3.074074,27.688697,3.324891,0.000000,-1.483318
LINE885,0.000000,0.000000,27.680846,3.324818,0.000000,-0.067519
LINE886,55.084103,-0.833075,0.000000,0.162389,0.000000,4.159204
LINE887,27.683936,-0.829429,0.000000,3.268607,0.000000,-1.519044
LINE888,27.681394,-0.829491,0.000000,-1.387909,0.000000,1.299722
LINE889,0.000000,2.288676,27.688697,3.324891,0.000000,-1.544838
LINE890,55.084103,-0.833075,0.000000,3.355612,0.000000,0.303302
LINE891,27.683936,-0.829429,0.000000,3.241722,0.000000,-1.517721
LINE892,27.681394,-0.829491,0.000000,4.078782,0.000000,1.665146
LINE893,0.000000,1.503278,27.688697,3.324891,0.000000,-0.067519
LINE894,27.554687,-0.832962,0.000000,-1.522347,0.000000,-1.376630
LINE895,27.529416,-0.833189,0.000000,2.501336,0.000000,4.471829
LINE896,27.683936,-0.829429,0.000000,3.113657,0.000000,-1.484193
LINE897,27.681394,-0.829491,0.000000,2.397152,0.000000,-1.387454
LINE898,0.000000,0.000000,27.688697,3.324891,0.000000,-0.067519
LINE899,27.554687,-0.832962,0.000000,3.191894,0.000000,4.704852
LINE900,27.683936,-0.829429,0.000000,3.346850,0.000000,-1.477226
LINE901,27.683936,-0.829429,0.000000,3.533013,0.000000,-1.254576
LINE902,27.683936,-0.829429,0.000000,3.558654,0.000000,-1.557589
LINE903,27.683936,-0.829429,0.000000,3.695856,0.000000,1.637215
LINE904,27.683936,-0.829429,0.000000,3.688828,0.000000,1.574140
LINE905,27.683936,-0.829429,0.000000,2.359177,0.000000,1.639121
